* NGSPICE file created from core_prel_parax.ext - technology: sky130A

.subckt core_prel_parax VDD Vbgr VSS
X0 w_18582_n15452.t11 Vbgr.t5 VSS.t96 w_18582_n15452.t10 sky130_fd_pr__pfet_01v8_lvt ad=0.29 pd=2.58 as=0.29 ps=2.58 w=1 l=10
X1 a_19776_n11398# a_20010_n12050# VSS.t92 sky130_fd_pr__res_xhigh_po_0p69 l=1.26
X2 VDD.t54 w_18582_n15452.t13 MINUS.t1 VDD.t53 sky130_fd_pr__pfet_01v8_lvt ad=0.725 pd=5.29 as=0.725 ps=5.29 w=5 l=0.5
X3 VDD.t20 VDD.t17 VDD.t19 VDD.t18 sky130_fd_pr__pfet_01v8_lvt ad=1.45 pd=10.58 as=0 ps=0 w=5 l=0.5
X4 VSS.t42 VSS.t70 XQ2[0|0].Emitter sky130_fd_pr__pnp_05v5_W3p40L3p40
**devattr s=462400,2720
X5 VSS.t36 VSS.t69 XQ2[0|0].Emitter sky130_fd_pr__pnp_05v5_W3p40L3p40
**devattr s=462400,2720
X6 VSS.t27 VSS.t68 XQ2[0|0].Emitter sky130_fd_pr__pnp_05v5_W3p40L3p40
**devattr s=462400,2720
X7 VSS.t24 VSS.t67 XQ2[0|0].Emitter sky130_fd_pr__pnp_05v5_W3p40L3p40
**devattr s=462400,2720
X8 a_19776_n11398# a_19542_n12050# VSS.t82 sky130_fd_pr__res_xhigh_po_0p69 l=1.26
X9 a_12755_n6044# PLUS.t1 VSS.t22 sky130_fd_pr__res_xhigh_po_0p35 l=1
X10 Sop Gcm2 VSS.t88 VSS.t87 sky130_fd_pr__nfet_01v8_lvt ad=0.29 pd=2.29 as=0.29 ps=2.29 w=2 l=0.5
X11 a_13419_n6044# a_13087_n6644# VSS.t77 sky130_fd_pr__res_xhigh_po_0p35 l=1
X12 VSS.t90 VSS.t91 VSS.t89 sky130_fd_pr__res_xhigh_po_0p69 l=1.26
X13 Vbgr.t2 w_18582_n15452.t14 VDD.t52 VDD.t51 sky130_fd_pr__pfet_01v8_lvt ad=0.725 pd=5.29 as=0.725 ps=5.29 w=5 l=0.5
X14 a_12921_n6044# a_13253_n6644# VSS.t74 sky130_fd_pr__res_xhigh_po_0p35 l=1
X15 w_18582_n15452.t12 Gcm1.t6 VDD.t60 VDD.t59 sky130_fd_pr__pfet_01v8_lvt ad=0.58 pd=4.29 as=0.58 ps=4.29 w=4 l=1
X16 VDD.t16 VDD.t13 VDD.t15 VDD.t14 sky130_fd_pr__pfet_01v8_lvt ad=0.29 pd=2.58 as=0 ps=0 w=1 l=10
X17 w_18582_n15452.t9 Vbgr.t6 VSS.t95 w_18582_n15452.t8 sky130_fd_pr__pfet_01v8_lvt ad=0.29 pd=2.58 as=0.29 ps=2.58 w=1 l=10
X18 VSS.t86 Gcm2 Sop VSS.t85 sky130_fd_pr__nfet_01v8_lvt ad=0.29 pd=2.29 as=0.29 ps=2.29 w=2 l=0.5
X19 a_13419_n6044# a_13914_n6644# VSS.t15 sky130_fd_pr__res_xhigh_po_0p35 l=1
X20 VSS.t36 VSS.t66 XQ2[0|0].Emitter sky130_fd_pr__pnp_05v5_W3p40L3p40
**devattr s=462400,2720
X21 VSS.t30 VSS.t65 XQ2[0|0].Emitter sky130_fd_pr__pnp_05v5_W3p40L3p40
**devattr s=462400,2720
X22 VDD.t50 w_18582_n15452.t15 Gcm2 VDD.t49 sky130_fd_pr__pfet_01v8_lvt ad=0.725 pd=5.29 as=0.725 ps=5.29 w=5 l=0.5
X23 w_18582_n15452.t7 Vbgr.t7 VSS.t94 w_18582_n15452.t6 sky130_fd_pr__pfet_01v8_lvt ad=0.29 pd=2.58 as=0.29 ps=2.58 w=1 l=10
X24 MINUS.t0 a_14080_n6644# VSS.t13 sky130_fd_pr__res_xhigh_po_0p35 l=1
X25 VSS.t64 VSS.t62 Sop VSS.t63 sky130_fd_pr__nfet_01v8_lvt ad=2.32 pd=16.58 as=1.16 ps=8.29 w=8 l=4
X26 VSS.t1 VSS.t2 VSS.t0 sky130_fd_pr__res_xhigh_po_0p35 l=1.05
X27 MINUS.t3 w_18582_n15452.t16 VDD.t48 VDD.t47 sky130_fd_pr__pfet_01v8_lvt ad=0.725 pd=5.29 as=0.725 ps=5.29 w=5 l=0.5
X28 w_18582_n15452.t5 Vbgr.t8 VSS.t93 w_18582_n15452.t4 sky130_fd_pr__pfet_01v8_lvt ad=0.29 pd=2.58 as=0.29 ps=2.58 w=1 l=10
X29 VDD.t46 w_18582_n15452.t17 MINUS.t4 VDD.t45 sky130_fd_pr__pfet_01v8_lvt ad=0.725 pd=5.29 as=0.725 ps=5.29 w=5 l=0.5
X30 a_19308_n11398# a_19074_n12050# VSS.t14 sky130_fd_pr__res_xhigh_po_0p69 l=1.26
X31 VDD.t44 w_18582_n15452.t18 Vbgr.t3 VDD.t43 sky130_fd_pr__pfet_01v8_lvt ad=0.725 pd=5.29 as=0.725 ps=5.29 w=5 l=0.5
X32 Sop VSS.t59 VSS.t61 VSS.t60 sky130_fd_pr__nfet_01v8_lvt ad=1.16 pd=8.29 as=2.32 ps=16.58 w=8 l=4
X33 VSS.t42 VSS.t53 XQ2[0|0].Emitter sky130_fd_pr__pnp_05v5_W3p40L3p40
**devattr s=462400,2720
X34 VSS.t12 a_12589_n6644# VSS.t11 sky130_fd_pr__res_xhigh_po_0p35 l=1
X35 VSS.t27 VSS.t52 XQ2[0|0].Emitter sky130_fd_pr__pnp_05v5_W3p40L3p40
**devattr s=462400,2720
X36 VSS.t42 VSS.t51 XQ2[0|0].Emitter sky130_fd_pr__pnp_05v5_W3p40L3p40
**devattr s=462400,2720
X37 Gcm2 w_18582_n15452.t19 VDD.t42 VDD.t41 sky130_fd_pr__pfet_01v8_lvt ad=0.725 pd=5.29 as=0.725 ps=5.29 w=5 l=0.5
X38 PLUS.t5 w_18582_n15452.t20 VDD.t40 VDD.t39 sky130_fd_pr__pfet_01v8_lvt ad=0.725 pd=5.29 as=0.725 ps=5.29 w=5 l=0.5
X39 VSS.t24 VSS.t50 XQ2[0|0].Emitter sky130_fd_pr__pnp_05v5_W3p40L3p40
**devattr s=462400,2720
X40 a_19308_n11398# a_19542_n12050# VSS.t76 sky130_fd_pr__res_xhigh_po_0p69 l=1.26
X41 Sop PLUS.t6 Gcm1.t5 VSS.t97 sky130_fd_pr__nfet_01v8_lvt ad=1.16 pd=8.29 as=1.16 ps=8.29 w=8 l=4
X42 a_12755_n6044# a_13087_n6644# VSS.t9 sky130_fd_pr__res_xhigh_po_0p35 l=1
X43 VDD.t12 VDD.t10 VDD.t12 VDD.t11 sky130_fd_pr__pfet_01v8_lvt ad=0.725 pd=5.29 as=0 ps=0 w=5 l=0.5
X44 MINUS.t2 w_18582_n15452.t21 VDD.t26 VDD.t25 sky130_fd_pr__pfet_01v8_lvt ad=0.725 pd=5.29 as=0.725 ps=5.29 w=5 l=0.5
X45 VSS.t42 VSS.t49 XQ2[0|0].Emitter sky130_fd_pr__pnp_05v5_W3p40L3p40
**devattr s=462400,2720
X46 Vbgr.t4 a_20478_n12050# VSS.t105 sky130_fd_pr__res_xhigh_po_0p69 l=1.26
X47 a_13748_n6044# a_13253_n6644# VSS.t6 sky130_fd_pr__res_xhigh_po_0p35 l=1
X48 VSS.t102 VSS.t103 VSS.t101 sky130_fd_pr__res_xhigh_po_0p35 l=1.05
X49 VDD.t9 VDD.t7 w_18582_n15452.t3 VDD.t8 sky130_fd_pr__pfet_01v8_lvt ad=1.16 pd=8.58 as=0.58 ps=4.29 w=4 l=1
X50 VSS.t27 VSS.t48 XQ2[0|0].Emitter sky130_fd_pr__pnp_05v5_W3p40L3p40
**devattr s=462400,2720
X51 VSS.t30 VSS.t47 XQ2[0|0].Emitter sky130_fd_pr__pnp_05v5_W3p40L3p40
**devattr s=462400,2720
X52 VSS.t30 VSS.t46 XQ2[0|0].Emitter sky130_fd_pr__pnp_05v5_W3p40L3p40
**devattr s=462400,2720
X53 VSS.t24 VSS.t45 XQ2[0|0].Emitter sky130_fd_pr__pnp_05v5_W3p40L3p40
**devattr s=462400,2720
X54 VDD.t38 w_18582_n15452.t22 PLUS.t4 VDD.t37 sky130_fd_pr__pfet_01v8_lvt ad=0.725 pd=5.29 as=0.725 ps=5.29 w=5 l=0.5
X55 PLUS.t0 XQ2[0|0].Emitter VSS.t5 sky130_fd_pr__res_xhigh_po_0p35 l=1.05
X56 a_14246_n6044# a_13914_n6644# VSS.t104 sky130_fd_pr__res_xhigh_po_0p35 l=1
X57 VSS.t36 VSS.t44 XQ2[0|0].Emitter sky130_fd_pr__pnp_05v5_W3p40L3p40
**devattr s=462400,2720
X58 a_13748_n6044# a_14080_n6644# VSS.t4 sky130_fd_pr__res_xhigh_po_0p35 l=1
X59 a_20244_n11398# a_20478_n12050# VSS.t81 sky130_fd_pr__res_xhigh_po_0p69 l=1.26
X60 w_18582_n15452.t2 VDD.t4 VDD.t6 VDD.t5 sky130_fd_pr__pfet_01v8_lvt ad=0.58 pd=4.29 as=1.16 ps=8.58 w=4 l=1
X61 VSS.t30 VSS.t43 XQ2[0|0].Emitter sky130_fd_pr__pnp_05v5_W3p40L3p40
**devattr s=462400,2720
X62 Vbgr.t1 w_18582_n15452.t23 VDD.t36 VDD.t35 sky130_fd_pr__pfet_01v8_lvt ad=0.725 pd=5.29 as=0.725 ps=5.29 w=5 l=0.5
X63 VSS.t21 a_18606_n12050# VSS.t20 sky130_fd_pr__res_xhigh_po_0p69 l=1.26
X64 Sop MINUS.t6 w_18582_n15452.t0 VSS.t8 sky130_fd_pr__nfet_01v8_lvt ad=1.16 pd=8.29 as=1.16 ps=8.29 w=8 l=4
X65 VSS.t79 VSS.t80 VSS.t78 sky130_fd_pr__res_xhigh_po_0p35 l=1
X66 VDD.t34 w_18582_n15452.t24 PLUS.t3 VDD.t33 sky130_fd_pr__pfet_01v8_lvt ad=0.725 pd=5.29 as=0.725 ps=5.29 w=5 l=0.5
X67 a_18840_n11398# a_18606_n12050# VSS.t3 sky130_fd_pr__res_xhigh_po_0p69 l=1.26
X68 PLUS.t2 w_18582_n15452.t25 VDD.t28 VDD.t27 sky130_fd_pr__pfet_01v8_lvt ad=0.725 pd=5.29 as=0.725 ps=5.29 w=5 l=0.5
X69 VSS.t42 VSS.t41 XQ2[0|0].Emitter sky130_fd_pr__pnp_05v5_W3p40L3p40
**devattr s=462400,2720
X70 VSS.t72 VSS.t73 VSS.t71 sky130_fd_pr__res_xhigh_po_0p35 l=1
X71 VDD.t32 w_18582_n15452.t26 Vbgr.t0 VDD.t31 sky130_fd_pr__pfet_01v8_lvt ad=0.725 pd=5.29 as=0.725 ps=5.29 w=5 l=0.5
X72 VSS.t36 VSS.t40 XQ2[0|0].Emitter sky130_fd_pr__pnp_05v5_W3p40L3p40
**devattr s=462400,2720
X73 VSS.t27 VSS.t39 XQ2[0|0].Emitter sky130_fd_pr__pnp_05v5_W3p40L3p40
**devattr s=462400,2720
X74 VSS.t24 VSS.t38 XQ2[0|0].Emitter sky130_fd_pr__pnp_05v5_W3p40L3p40
**devattr s=462400,2720
X75 VDD.t3 VDD.t0 VDD.t2 VDD.t1 sky130_fd_pr__pfet_01v8_lvt ad=0.29 pd=2.58 as=0 ps=0 w=1 l=10
X76 VSS.t36 VSS.t37 XQ2[0|0].Emitter sky130_fd_pr__pnp_05v5_W3p40L3p40
**devattr s=462400,2720
X77 a_18840_n11398# a_19074_n12050# VSS.t7 sky130_fd_pr__res_xhigh_po_0p69 l=1.26
X78 Gcm1.t3 Gcm1.t2 VDD.t56 VDD.t55 sky130_fd_pr__pfet_01v8_lvt ad=0.58 pd=4.29 as=0.58 ps=4.29 w=4 l=1
X79 Gcm1.t4 PLUS.t7 Sop VSS.t16 sky130_fd_pr__nfet_01v8_lvt ad=1.16 pd=8.29 as=1.16 ps=8.29 w=8 l=4
X80 a_20244_n11398# a_20010_n12050# VSS.t10 sky130_fd_pr__res_xhigh_po_0p69 l=1.26
X81 VSS.t42 VSS.t54 MINUS.t5 sky130_fd_pr__pnp_05v5_W3p40L3p40
**devattr s=462400,2720
X82 VDD.t30 w_18582_n15452.t27 Gcm2 VDD.t29 sky130_fd_pr__pfet_01v8_lvt ad=0.725 pd=5.29 as=0.725 ps=5.29 w=5 l=0.5
X83 VDD.t22 Gcm1.t7 w_18582_n15452.t1 VDD.t21 sky130_fd_pr__pfet_01v8_lvt ad=0.58 pd=4.29 as=0.58 ps=4.29 w=4 l=1
X84 VSS.t36 VSS.t35 XQ2[0|0].Emitter sky130_fd_pr__pnp_05v5_W3p40L3p40
**devattr s=462400,2720
X85 VSS.t30 VSS.t34 XQ2[0|0].Emitter sky130_fd_pr__pnp_05v5_W3p40L3p40
**devattr s=462400,2720
X86 Gcm2 Gcm2 VSS.t84 VSS.t83 sky130_fd_pr__nfet_01v8_lvt ad=0.29 pd=2.29 as=0.29 ps=2.29 w=2 l=0.5
X87 VSS.t58 VSS.t55 VSS.t57 VSS.t56 sky130_fd_pr__nfet_01v8_lvt ad=0.58 pd=4.58 as=0 ps=0 w=2 l=0.5
X88 a_12921_n6044# a_12589_n6644# VSS.t100 sky130_fd_pr__res_xhigh_po_0p35 l=1
X89 VSS.t33 VSS.t31 Gcm2 VSS.t32 sky130_fd_pr__nfet_01v8_lvt ad=0.58 pd=4.58 as=0.29 ps=2.29 w=2 l=0.5
X90 a_14246_n6044# VSS.t99 VSS.t98 sky130_fd_pr__res_xhigh_po_0p35 l=1
X91 VSS.t30 VSS.t29 XQ2[0|0].Emitter sky130_fd_pr__pnp_05v5_W3p40L3p40
**devattr s=462400,2720
X92 VDD.t58 Gcm1.t0 Gcm1.t1 VDD.t57 sky130_fd_pr__pfet_01v8_lvt ad=0.58 pd=4.29 as=0.58 ps=4.29 w=4 l=1
X93 VSS.t18 VSS.t19 VSS.t17 sky130_fd_pr__res_xhigh_po_0p69 l=1.26
X94 Gcm2 w_18582_n15452.t28 VDD.t24 VDD.t23 sky130_fd_pr__pfet_01v8_lvt ad=0.725 pd=5.29 as=0.725 ps=5.29 w=5 l=0.5
X95 VSS.t27 VSS.t28 XQ2[0|0].Emitter sky130_fd_pr__pnp_05v5_W3p40L3p40
**devattr s=462400,2720
X96 VSS.t27 VSS.t26 XQ2[0|0].Emitter sky130_fd_pr__pnp_05v5_W3p40L3p40
**devattr s=462400,2720
X97 VSS.t24 VSS.t25 XQ2[0|0].Emitter sky130_fd_pr__pnp_05v5_W3p40L3p40
**devattr s=462400,2720
X98 VSS.t24 VSS.t23 XQ2[0|0].Emitter sky130_fd_pr__pnp_05v5_W3p40L3p40
**devattr s=462400,2720
X99 w_18582_n15452.t0 MINUS.t7 Sop VSS.t75 sky130_fd_pr__nfet_01v8_lvt ad=1.16 pd=8.29 as=1.16 ps=8.29 w=8 l=4
R0 Vbgr.n3 Vbgr.n1 166.519
R1 Vbgr.n3 Vbgr.n2 166.518
R2 Vbgr Vbgr.t4 21.9643
R3 Vbgr.n2 Vbgr.t0 5.7135
R4 Vbgr.n2 Vbgr.t2 5.7135
R5 Vbgr.n1 Vbgr.t3 5.7135
R6 Vbgr.n1 Vbgr.t1 5.7135
R7 Vbgr.n7 Vbgr.t6 4.97522
R8 Vbgr.n9 Vbgr.t5 4.9198
R9 Vbgr.n8 Vbgr.t8 4.9198
R10 Vbgr.n7 Vbgr.t7 4.9198
R11 Vbgr.n10 Vbgr.n9 4.63261
R12 Vbgr.n6 Vbgr.n5 2.75531
R13 Vbgr.n5 Vbgr.n3 2.24383
R14 Vbgr.n5 Vbgr.n4 0.994731
R15 Vbgr.n11 Vbgr 0.871594
R16 Vbgr.n11 Vbgr.n10 0.391125
R17 Vbgr.n6 Vbgr 0.253909
R18 Vbgr Vbgr.n0 0.245692
R19 Vbgr.n4 Vbgr 0.143857
R20 Vbgr.n10 Vbgr.n6 0.114136
R21 Vbgr.n6 Vbgr.n0 0.0774231
R22 Vbgr.n9 Vbgr.n8 0.0559149
R23 Vbgr.n8 Vbgr.n7 0.0559149
R24 Vbgr.n4 Vbgr.n0 0.0293462
R25 Vbgr Vbgr.n11 0.0197308
R26 VSS.n5287 VSS.n341 913354
R27 VSS.n5285 VSS.n344 910355
R28 VSS.n341 VSS.n340 722700
R29 VSS.n1185 VSS.n3 78819
R30 VSS.n1182 VSS.n1169 12208.2
R31 VSS.n5503 VSS.n58 10933.5
R32 VSS.n5286 VSS.n5285 9617.11
R33 VSS.n5287 VSS.n5286 9493.36
R34 VSS.n5283 VSS.n344 7359.76
R35 VSS.n5282 VSS.n347 5618.46
R36 VSS.n4013 VSS.n1162 5394.32
R37 VSS.n5284 VSS.n5283 3918.75
R38 VSS.n5288 VSS.n339 3779.14
R39 VSS.n1184 VSS.n344 3290.75
R40 VSS.n5510 VSS.n48 3091.12
R41 VSS.n1188 VSS.n48 3091.12
R42 VSS.n1188 VSS.n1186 3091.12
R43 VSS.n1184 VSS.n1183 1829.32
R44 VSS.n5282 VSS.n5281 1818.78
R45 VSS.n5510 VSS.n47 1814.52
R46 VSS.n945 VSS.n944 1801.72
R47 VSS.n2996 VSS.n2995 1801.72
R48 VSS.n2817 VSS.n2816 1801.72
R49 VSS.n2929 VSS.n2928 1801.72
R50 VSS.n5285 VSS.n5284 1601.88
R51 VSS.n5288 VSS.n5287 1572.39
R52 VSS.n944 VSS.n903 1559.06
R53 VSS.n912 VSS.n903 1559.06
R54 VSS.n913 VSS.n912 1559.06
R55 VSS.n930 VSS.n929 1559.06
R56 VSS.n929 VSS.n842 1559.06
R57 VSS.n4546 VSS.n842 1559.06
R58 VSS.n4547 VSS.n4546 1559.06
R59 VSS.n4548 VSS.n4547 1559.06
R60 VSS.n3035 VSS.n2996 1559.06
R61 VSS.n3035 VSS.n3034 1559.06
R62 VSS.n3034 VSS.n3033 1559.06
R63 VSS.n3002 VSS.n3001 1559.06
R64 VSS.n3002 VSS.n1461 1559.06
R65 VSS.n3051 VSS.n1461 1559.06
R66 VSS.n3052 VSS.n3051 1559.06
R67 VSS.n3053 VSS.n3052 1559.06
R68 VSS.n2842 VSS.n2817 1559.06
R69 VSS.n2842 VSS.n2841 1559.06
R70 VSS.n2841 VSS.n2840 1559.06
R71 VSS.n3113 VSS.n1427 1559.06
R72 VSS.n3114 VSS.n3113 1559.06
R73 VSS.n3117 VSS.n3114 1559.06
R74 VSS.n3117 VSS.n3116 1559.06
R75 VSS.n3116 VSS.n3115 1559.06
R76 VSS.n2961 VSS.n2929 1559.06
R77 VSS.n2961 VSS.n2960 1559.06
R78 VSS.n2960 VSS.n2959 1559.06
R79 VSS.n2930 VSS.n1445 1559.06
R80 VSS.n3080 VSS.n1445 1559.06
R81 VSS.n3081 VSS.n3080 1559.06
R82 VSS.n3083 VSS.n3081 1559.06
R83 VSS.n3083 VSS.n3082 1559.06
R84 VSS.n1180 VSS.n1179 1286.03
R85 VSS.n1186 VSS.n47 1276.61
R86 VSS.n1172 VSS.n1170 1257.25
R87 VSS.n4395 VSS.n963 1135.73
R88 VSS.n1524 VSS.n247 1135.73
R89 VSS.n2527 VSS.n343 1135.73
R90 VSS.n4327 VSS.n963 1105.64
R91 VSS.n5290 VSS.n247 1105.64
R92 VSS.n2288 VSS.n345 1105.64
R93 VSS.n5286 VSS.n343 1090.6
R94 VSS.n5069 VSS.n5068 1083.5
R95 VSS.n3997 VSS.n3996 854.934
R96 VSS.n5284 VSS.n345 834.872
R97 VSS.n1186 VSS.n1185 829.258
R98 VSS.n930 VSS.t42 814.173
R99 VSS.n3001 VSS.t42 814.173
R100 VSS.n1427 VSS.t42 814.173
R101 VSS.n2930 VSS.t42 814.173
R102 VSS.n913 VSS.t42 744.883
R103 VSS.n3033 VSS.t42 744.883
R104 VSS.n2840 VSS.t42 744.883
R105 VSS.n2959 VSS.t42 744.883
R106 VSS.n4071 VSS.n4 676.923
R107 VSS.n4099 VSS.n4071 676.923
R108 VSS.n4099 VSS.n4098 676.923
R109 VSS.n4098 VSS.n4097 676.923
R110 VSS.n4097 VSS.n4072 676.923
R111 VSS.n4088 VSS.n4087 676.923
R112 VSS.n4087 VSS.n4086 676.923
R113 VSS.n4326 VSS.n4325 676.923
R114 VSS.n4327 VSS.n4326 676.923
R115 VSS.n4395 VSS.n4394 676.923
R116 VSS.n4394 VSS.n4393 676.923
R117 VSS.n4393 VSS.n4334 676.923
R118 VSS.n4362 VSS.n4334 676.923
R119 VSS.n4362 VSS.n4361 676.923
R120 VSS.n4351 VSS.n4350 676.923
R121 VSS.n4351 VSS.n338 676.923
R122 VSS.n5291 VSS.n5289 676.923
R123 VSS.n5291 VSS.n5290 676.923
R124 VSS.n1525 VSS.n1524 676.923
R125 VSS.n2558 VSS.n1525 676.923
R126 VSS.n2558 VSS.n2557 676.923
R127 VSS.n2557 VSS.n2556 676.923
R128 VSS.n2556 VSS.n1526 676.923
R129 VSS.n2547 VSS.n2546 676.923
R130 VSS.n2546 VSS.n2545 676.923
R131 VSS.n2545 VSS.n1535 676.923
R132 VSS.n2536 VSS.n1535 676.923
R133 VSS.n2536 VSS.n342 676.923
R134 VSS.n2527 VSS.n2526 676.923
R135 VSS.n2526 VSS.n2525 676.923
R136 VSS.n2525 VSS.n1564 676.923
R137 VSS.n2234 VSS.n1564 676.923
R138 VSS.n2234 VSS.n2233 676.923
R139 VSS.n2246 VSS.n2245 676.923
R140 VSS.n2246 VSS.n2224 676.923
R141 VSS.n2286 VSS.n2224 676.923
R142 VSS.n2287 VSS.n2286 676.923
R143 VSS.n2288 VSS.n2287 676.923
R144 VSS.n2297 VSS.n346 676.923
R145 VSS.n2297 VSS.n2126 676.923
R146 VSS.n2310 VSS.n2126 676.923
R147 VSS.n2311 VSS.n2310 676.923
R148 VSS.n2312 VSS.n2311 676.923
R149 VSS.n2314 VSS.n2119 676.923
R150 VSS.n2327 VSS.n2119 676.923
R151 VSS.n2328 VSS.n2327 676.923
R152 VSS.n2329 VSS.n2328 676.923
R153 VSS.n2329 VSS.n347 676.923
R154 VSS.n57 VSS.n52 640.297
R155 VSS.n5504 VSS.n52 637.191
R156 VSS.n5505 VSS.n51 635.47
R157 VSS.n4325 VSS.n3 631.795
R158 VSS.n56 VSS.n51 627.563
R159 VSS.n1168 VSS.n3 585.779
R160 VSS.n4144 VSS.n45 585
R161 VSS.n4145 VSS.n4144 585
R162 VSS.n4144 VSS.n61 585
R163 VSS.n5262 VSS.n5261 585
R164 VSS.n5261 VSS.n5260 585
R165 VSS.n5263 VSS.n359 585
R166 VSS.n359 VSS.n358 585
R167 VSS.n5265 VSS.n5264 585
R168 VSS.n5266 VSS.n5265 585
R169 VSS.n357 VSS.n356 585
R170 VSS.n5267 VSS.n357 585
R171 VSS.n5270 VSS.n5269 585
R172 VSS.n5269 VSS.n5268 585
R173 VSS.n5271 VSS.n354 585
R174 VSS.n354 VSS.n353 585
R175 VSS.n5273 VSS.n5272 585
R176 VSS.n5274 VSS.n5273 585
R177 VSS.n355 VSS.n351 585
R178 VSS.n5275 VSS.n351 585
R179 VSS.n5277 VSS.n352 585
R180 VSS.n5277 VSS.n5276 585
R181 VSS.n5278 VSS.n348 585
R182 VSS.n5281 VSS.n5280 585
R183 VSS.n4982 VSS.n4953 585
R184 VSS.n4986 VSS.n4953 585
R185 VSS.n4984 VSS.n4983 585
R186 VSS.n4985 VSS.n4984 585
R187 VSS.n4981 VSS.n4956 585
R188 VSS.n4956 VSS.n4955 585
R189 VSS.n4980 VSS.n4979 585
R190 VSS.n4979 VSS.n4978 585
R191 VSS.n4976 VSS.n4957 585
R192 VSS.n4977 VSS.n4976 585
R193 VSS.n4975 VSS.n4959 585
R194 VSS.n4975 VSS.n4974 585
R195 VSS.n4969 VSS.n4958 585
R196 VSS.n4973 VSS.n4958 585
R197 VSS.n4971 VSS.n4970 585
R198 VSS.n4972 VSS.n4971 585
R199 VSS.n4968 VSS.n4961 585
R200 VSS.n4961 VSS.n4960 585
R201 VSS.n612 VSS.n608 585
R202 VSS.n5010 VSS.n612 585
R203 VSS.n5008 VSS.n5007 585
R204 VSS.n5009 VSS.n5008 585
R205 VSS.n5006 VSS.n617 585
R206 VSS.n617 VSS.n616 585
R207 VSS.n5005 VSS.n5004 585
R208 VSS.n5004 VSS.n5003 585
R209 VSS.n619 VSS.n618 585
R210 VSS.n5002 VSS.n619 585
R211 VSS.n5000 VSS.n4999 585
R212 VSS.n5001 VSS.n5000 585
R213 VSS.n4998 VSS.n623 585
R214 VSS.n623 VSS.n622 585
R215 VSS.n4997 VSS.n4996 585
R216 VSS.n4996 VSS.n4995 585
R217 VSS.n625 VSS.n624 585
R218 VSS.n4994 VSS.n625 585
R219 VSS.n2293 VSS.n674 585
R220 VSS.n2294 VSS.n2221 585
R221 VSS.n2221 VSS.n710 585
R222 VSS.n2294 VSS.n2293 585
R223 VSS.n2293 VSS.n710 585
R224 VSS.n378 VSS.n377 585
R225 VSS.n5236 VSS.n378 585
R226 VSS.n5239 VSS.n5238 585
R227 VSS.n5238 VSS.n5237 585
R228 VSS.n5240 VSS.n376 585
R229 VSS.n376 VSS.n375 585
R230 VSS.n5242 VSS.n5241 585
R231 VSS.n5243 VSS.n5242 585
R232 VSS.n372 VSS.n371 585
R233 VSS.n5244 VSS.n372 585
R234 VSS.n5247 VSS.n5246 585
R235 VSS.n5246 VSS.n5245 585
R236 VSS.n5248 VSS.n369 585
R237 VSS.n369 VSS.n368 585
R238 VSS.n5250 VSS.n5249 585
R239 VSS.n5251 VSS.n5250 585
R240 VSS.n370 VSS.n366 585
R241 VSS.n5252 VSS.n366 585
R242 VSS.n5230 VSS.n381 585
R243 VSS.n5230 VSS.n383 585
R244 VSS.n5230 VSS.n5229 585
R245 VSS.n4967 VSS.n4966 585
R246 VSS.n4966 VSS.n4965 585
R247 VSS.n4963 VSS.n4962 585
R248 VSS.n4964 VSS.n4963 585
R249 VSS.n5232 VSS.n5231 585
R250 VSS.n5231 VSS.n379 585
R251 VSS.n5234 VSS.n5233 585
R252 VSS.n5235 VSS.n5234 585
R253 VSS.n2926 VSS.n2621 585
R254 VSS.n2926 VSS.n2925 585
R255 VSS.n404 VSS.n402 585
R256 VSS.n5223 VSS.n404 585
R257 VSS.n1926 VSS.n674 585
R258 VSS.n2175 VSS.n710 585
R259 VSS.n5228 VSS.n391 585
R260 VSS.n5228 VSS.n5227 585
R261 VSS.n5229 VSS.n5228 585
R262 VSS.n5226 VSS.n391 585
R263 VSS.n5227 VSS.n5226 585
R264 VSS.n5226 VSS.n5225 585
R265 VSS.n5224 VSS.n402 585
R266 VSS.n5224 VSS.n5223 585
R267 VSS.n5225 VSS.n5224 585
R268 VSS.n3224 VSS.n1345 585
R269 VSS.n3256 VSS.n3224 585
R270 VSS.n3224 VSS.n3223 585
R271 VSS.n4554 VSS.n838 585
R272 VSS.n4555 VSS.n4554 585
R273 VSS.n4554 VSS.n4550 585
R274 VSS.n4549 VSS.n838 585
R275 VSS.n4550 VSS.n4549 585
R276 VSS.n946 VSS.n900 585
R277 VSS.n4407 VSS.n946 585
R278 VSS.n949 VSS.n244 585
R279 VSS.n3254 VSS.n244 585
R280 VSS.n2923 VSS.n244 585
R281 VSS.n251 VSS.n244 585
R282 VSS.n5372 VSS.n266 585
R283 VSS.n5372 VSS.n279 585
R284 VSS.n5372 VSS.n285 585
R285 VSS.n1521 VSS.n290 585
R286 VSS.n5372 VSS.n290 585
R287 VSS.n1521 VSS.n251 585
R288 VSS.n5372 VSS.n251 585
R289 VSS.n4470 VSS.n406 585
R290 VSS.n5221 VSS.n406 585
R291 VSS.n2530 VSS.n406 585
R292 VSS.n3188 VSS.n407 585
R293 VSS.n1623 VSS.n407 585
R294 VSS.n2531 VSS.n1561 585
R295 VSS.n1561 VSS.n407 585
R296 VSS.n2531 VSS.n2530 585
R297 VSS.n2530 VSS.n407 585
R298 VSS.n3222 VSS.n1355 585
R299 VSS.n3222 VSS.n3221 585
R300 VSS.n3223 VSS.n3222 585
R301 VSS.n3215 VSS.n406 585
R302 VSS.n1387 VSS.n406 585
R303 VSS.n3220 VSS.n1355 585
R304 VSS.n3221 VSS.n3220 585
R305 VSS.n3220 VSS.n456 585
R306 VSS.n3217 VSS.n454 585
R307 VSS.n3218 VSS.n456 585
R308 VSS.n5120 VSS.n503 585
R309 VSS.n606 VSS.n605 585
R310 VSS.n614 VSS.n613 585
R311 VSS.n5014 VSS.n610 585
R312 VSS.n5011 VSS.n610 585
R313 VSS.n5014 VSS.n5013 585
R314 VSS.n5013 VSS.n5012 585
R315 VSS.n5123 VSS.n498 585
R316 VSS.n5123 VSS.n454 585
R317 VSS.n5123 VSS.n5122 585
R318 VSS.n710 VSS.n681 585
R319 VSS.n1890 VSS.n710 585
R320 VSS.n5121 VSS.n498 585
R321 VSS.n5122 VSS.n5121 585
R322 VSS.n5121 VSS.n5120 585
R323 VSS.n686 VSS.n674 585
R324 VSS.n710 VSS.n675 585
R325 VSS.n671 VSS.n670 585
R326 VSS.n4555 VSS.n671 585
R327 VSS.n4781 VSS.n671 585
R328 VSS.n4682 VSS.n674 585
R329 VSS.n710 VSS.n673 585
R330 VSS.n4780 VSS.n670 585
R331 VSS.n4781 VSS.n4780 585
R332 VSS.n4780 VSS.n4779 585
R333 VSS.n4779 VSS.n596 585
R334 VSS.n5065 VSS.n5064 585
R335 VSS.n5065 VSS.n585 585
R336 VSS.n5063 VSS.n586 585
R337 VSS.n5059 VSS.n586 585
R338 VSS.n5062 VSS.n5061 585
R339 VSS.n5061 VSS.n5060 585
R340 VSS.n588 VSS.n587 585
R341 VSS.n5058 VSS.n588 585
R342 VSS.n5056 VSS.n5055 585
R343 VSS.n5057 VSS.n5056 585
R344 VSS.n5054 VSS.n589 585
R345 VSS.n5050 VSS.n589 585
R346 VSS.n5053 VSS.n5052 585
R347 VSS.n5052 VSS.n5051 585
R348 VSS.n591 VSS.n590 585
R349 VSS.n5049 VSS.n591 585
R350 VSS.n5047 VSS.n5046 585
R351 VSS.n5048 VSS.n5047 585
R352 VSS.n5045 VSS.n593 585
R353 VSS.n593 VSS.n592 585
R354 VSS.n5044 VSS.n5043 585
R355 VSS.n5043 VSS.n5042 585
R356 VSS.n5040 VSS.n597 585
R357 VSS.n5040 VSS.n5039 585
R358 VSS.n5034 VSS.n595 585
R359 VSS.n5038 VSS.n595 585
R360 VSS.n5036 VSS.n5035 585
R361 VSS.n5037 VSS.n5036 585
R362 VSS.n5033 VSS.n599 585
R363 VSS.n599 VSS.n598 585
R364 VSS.n5032 VSS.n5031 585
R365 VSS.n5031 VSS.n5030 585
R366 VSS.n601 VSS.n600 585
R367 VSS.n5029 VSS.n601 585
R368 VSS.n5027 VSS.n5026 585
R369 VSS.n5028 VSS.n5027 585
R370 VSS.n5025 VSS.n602 585
R371 VSS.n5021 VSS.n602 585
R372 VSS.n5024 VSS.n5023 585
R373 VSS.n5023 VSS.n5022 585
R374 VSS.n604 VSS.n603 585
R375 VSS.n5020 VSS.n604 585
R376 VSS.n5018 VSS.n5017 585
R377 VSS.n5019 VSS.n5018 585
R378 VSS.n3894 VSS.n3893 585
R379 VSS.n3895 VSS.n244 585
R380 VSS.n3894 VSS.n898 585
R381 VSS.n3894 VSS.n896 585
R382 VSS.n3895 VSS.n898 585
R383 VSS.n4503 VSS.n4502 585
R384 VSS.n4502 VSS.n4501 585
R385 VSS.n4444 VSS.n4439 585
R386 VSS.n4439 VSS.n4438 585
R387 VSS.n4510 VSS.n4509 585
R388 VSS.n4511 VSS.n4510 585
R389 VSS.n4440 VSS.n4436 585
R390 VSS.n4512 VSS.n4436 585
R391 VSS.n4515 VSS.n4514 585
R392 VSS.n4514 VSS.n4513 585
R393 VSS.n4435 VSS.n4433 585
R394 VSS.n4437 VSS.n4435 585
R395 VSS.n4520 VSS.n4430 585
R396 VSS.n4430 VSS.n4429 585
R397 VSS.n4525 VSS.n4524 585
R398 VSS.n4526 VSS.n4525 585
R399 VSS.n4431 VSS.n895 585
R400 VSS.n4527 VSS.n895 585
R401 VSS.n4530 VSS.n4529 585
R402 VSS.n4529 VSS.n4528 585
R403 VSS.n894 VSS.n892 585
R404 VSS.n4428 VSS.n894 585
R405 VSS.n4426 VSS.n4425 585
R406 VSS.n4427 VSS.n4426 585
R407 VSS.n4500 VSS.n4499 585
R408 VSS.n4497 VSS.n406 585
R409 VSS.n4499 VSS.n785 585
R410 VSS.n4499 VSS.n783 585
R411 VSS.n4497 VSS.n785 585
R412 VSS.n4650 VSS.n737 585
R413 VSS.n4650 VSS.n4649 585
R414 VSS.n741 VSS.n735 585
R415 VSS.n4647 VSS.n735 585
R416 VSS.n4645 VSS.n4644 585
R417 VSS.n4646 VSS.n4645 585
R418 VSS.n4613 VSS.n739 585
R419 VSS.n739 VSS.n738 585
R420 VSS.n4621 VSS.n4620 585
R421 VSS.n4620 VSS.n4619 585
R422 VSS.n4617 VSS.n4612 585
R423 VSS.n4618 VSS.n4617 585
R424 VSS.n4626 VSS.n4609 585
R425 VSS.n4609 VSS.n4608 585
R426 VSS.n4631 VSS.n4630 585
R427 VSS.n4632 VSS.n4631 585
R428 VSS.n4610 VSS.n782 585
R429 VSS.n4633 VSS.n782 585
R430 VSS.n4636 VSS.n4635 585
R431 VSS.n4635 VSS.n4634 585
R432 VSS.n781 VSS.n779 585
R433 VSS.n4607 VSS.n781 585
R434 VSS.n4605 VSS.n4604 585
R435 VSS.n4606 VSS.n4605 585
R436 VSS.n4648 VSS.n720 585
R437 VSS.n4657 VSS.n674 585
R438 VSS.n4656 VSS.n720 585
R439 VSS.n4652 VSS.n720 585
R440 VSS.n4657 VSS.n4656 585
R441 VSS.n5072 VSS.n5071 585
R442 VSS.n5071 VSS.n5070 585
R443 VSS.n581 VSS.n576 585
R444 VSS.n576 VSS.n575 585
R445 VSS.n5079 VSS.n5078 585
R446 VSS.n5080 VSS.n5079 585
R447 VSS.n577 VSS.n573 585
R448 VSS.n5081 VSS.n573 585
R449 VSS.n5084 VSS.n5083 585
R450 VSS.n5083 VSS.n5082 585
R451 VSS.n572 VSS.n570 585
R452 VSS.n574 VSS.n572 585
R453 VSS.n5089 VSS.n567 585
R454 VSS.n567 VSS.n566 585
R455 VSS.n5094 VSS.n5093 585
R456 VSS.n5095 VSS.n5094 585
R457 VSS.n568 VSS.n564 585
R458 VSS.n5096 VSS.n564 585
R459 VSS.n5099 VSS.n5098 585
R460 VSS.n5098 VSS.n5097 585
R461 VSS.n563 VSS.n561 585
R462 VSS.n565 VSS.n563 585
R463 VSS.n4655 VSS.n4654 585
R464 VSS.n4654 VSS.n4653 585
R465 VSS.n5069 VSS.n584 585
R466 VSS.n5068 VSS.n5067 585
R467 VSS.n3996 VSS.n3995 585
R468 VSS.n1215 VSS.n1214 585
R469 VSS.n1213 VSS.n1203 585
R470 VSS.n1207 VSS.n1204 585
R471 VSS.n1209 VSS.n1208 585
R472 VSS.n1206 VSS.n1205 585
R473 VSS.n1268 VSS.n1242 585
R474 VSS.n3962 VSS.n1242 585
R475 VSS.n3965 VSS.n3964 585
R476 VSS.n3964 VSS.n3963 585
R477 VSS.n1237 VSS.n1233 585
R478 VSS.n1233 VSS.n1232 585
R479 VSS.n3972 VSS.n3971 585
R480 VSS.n3973 VSS.n3972 585
R481 VSS.n1235 VSS.n1231 585
R482 VSS.n3974 VSS.n1231 585
R483 VSS.n3977 VSS.n3976 585
R484 VSS.n3976 VSS.n3975 585
R485 VSS.n1230 VSS.n1228 585
R486 VSS.n1230 VSS.n1229 585
R487 VSS.n1224 VSS.n1221 585
R488 VSS.n1221 VSS.n1220 585
R489 VSS.n3985 VSS.n3984 585
R490 VSS.n3986 VSS.n3985 585
R491 VSS.n1222 VSS.n1218 585
R492 VSS.n3987 VSS.n1218 585
R493 VSS.n3990 VSS.n3989 585
R494 VSS.n3989 VSS.n3988 585
R495 VSS.n3992 VSS.n1201 585
R496 VSS.n1201 VSS.n1200 585
R497 VSS.n3924 VSS.n1294 585
R498 VSS.n1294 VSS.n1293 585
R499 VSS.n3927 VSS.n3926 585
R500 VSS.n3928 VSS.n3927 585
R501 VSS.n1295 VSS.n1290 585
R502 VSS.n3929 VSS.n1290 585
R503 VSS.n3932 VSS.n3931 585
R504 VSS.n3931 VSS.n3930 585
R505 VSS.n1289 VSS.n1287 585
R506 VSS.n1292 VSS.n1289 585
R507 VSS.n1283 VSS.n1282 585
R508 VSS.n1291 VSS.n1282 585
R509 VSS.n3940 VSS.n3939 585
R510 VSS.n3944 VSS.n3940 585
R511 VSS.n3947 VSS.n3946 585
R512 VSS.n3946 VSS.n3945 585
R513 VSS.n1281 VSS.n1279 585
R514 VSS.n3943 VSS.n1281 585
R515 VSS.n3941 VSS.n1275 585
R516 VSS.n3942 VSS.n3941 585
R517 VSS.n3954 VSS.n1273 585
R518 VSS.n1273 VSS.n1272 585
R519 VSS.n3957 VSS.n3956 585
R520 VSS.n3958 VSS.n3957 585
R521 VSS.n3961 VSS.n3960 585
R522 VSS.n3960 VSS.n1271 585
R523 VSS.n3960 VSS.n3959 585
R524 VSS.n4019 VSS.n4018 585
R525 VSS.n4020 VSS.n4019 585
R526 VSS.n4019 VSS.n1126 585
R527 VSS.n3757 VSS.n3711 585
R528 VSS.n3757 VSS.n3710 585
R529 VSS.n3757 VSS.n3756 585
R530 VSS.n3710 VSS.n3709 585
R531 VSS.n3588 VSS.n3582 585
R532 VSS.n960 VSS.n958 585
R533 VSS.n4403 VSS.n960 585
R534 VSS.n3582 VSS.n960 585
R535 VSS.n3263 VSS.n1123 585
R536 VSS.n4020 VSS.n1123 585
R537 VSS.n3833 VSS.n1123 585
R538 VSS.n5473 VSS.n77 585
R539 VSS.n5474 VSS.n5473 585
R540 VSS.n5373 VSS.n244 585
R541 VSS.n244 VSS.n243 585
R542 VSS.n259 VSS.n244 585
R543 VSS.n250 VSS.n246 585
R544 VSS.n5372 VSS.n250 585
R545 VSS.n5373 VSS.n246 585
R546 VSS.n5373 VSS.n5372 585
R547 VSS.n246 VSS.n243 585
R548 VSS.n5372 VSS.n243 585
R549 VSS.n259 VSS.n246 585
R550 VSS.n418 VSS.n406 585
R551 VSS.n5193 VSS.n406 585
R552 VSS.n417 VSS.n406 585
R553 VSS.n5195 VSS.n406 585
R554 VSS.n5196 VSS.n418 585
R555 VSS.n5196 VSS.n5193 585
R556 VSS.n5193 VSS.n407 585
R557 VSS.n5196 VSS.n417 585
R558 VSS.n417 VSS.n407 585
R559 VSS.n5196 VSS.n5195 585
R560 VSS.n5189 VSS.n422 585
R561 VSS.n5190 VSS.n5189 585
R562 VSS.n1919 VSS.n674 585
R563 VSS.n1882 VSS.n674 585
R564 VSS.n1951 VSS.n674 585
R565 VSS.n1952 VSS.n1915 585
R566 VSS.n1915 VSS.n710 585
R567 VSS.n1952 VSS.n1919 585
R568 VSS.n1919 VSS.n710 585
R569 VSS.n1952 VSS.n1882 585
R570 VSS.n1882 VSS.n710 585
R571 VSS.n1952 VSS.n1951 585
R572 VSS.n4950 VSS.n620 585
R573 VSS.n1917 VSS.n620 585
R574 VSS.n4993 VSS.n4992 585
R575 VSS.n627 VSS.n626 585
R576 VSS.n4990 VSS.n4951 585
R577 VSS.n4987 VSS.n4951 585
R578 VSS.n4990 VSS.n4989 585
R579 VSS.n4989 VSS.n4988 585
R580 VSS.n150 VSS.n149 585
R581 VSS.n4145 VSS.n150 585
R582 VSS.n5427 VSS.n150 585
R583 VSS.n4276 VSS.n4255 585
R584 VSS.n4276 VSS.n32 585
R585 VSS.n5371 VSS.n244 585
R586 VSS.n248 VSS.n244 585
R587 VSS.n5369 VSS.n244 585
R588 VSS.n5370 VSS.n249 585
R589 VSS.n5372 VSS.n249 585
R590 VSS.n5371 VSS.n5370 585
R591 VSS.n5372 VSS.n5371 585
R592 VSS.n5370 VSS.n248 585
R593 VSS.n5372 VSS.n248 585
R594 VSS.n5370 VSS.n5369 585
R595 VSS.n1650 VSS.n406 585
R596 VSS.n1614 VSS.n406 585
R597 VSS.n1679 VSS.n406 585
R598 VSS.n1680 VSS.n1648 585
R599 VSS.n1648 VSS.n407 585
R600 VSS.n1680 VSS.n1650 585
R601 VSS.n1650 VSS.n407 585
R602 VSS.n1680 VSS.n1614 585
R603 VSS.n1614 VSS.n407 585
R604 VSS.n1680 VSS.n1679 585
R605 VSS.n2468 VSS.n1584 585
R606 VSS.n1682 VSS.n1584 585
R607 VSS.n1999 VSS.n674 585
R608 VSS.n1998 VSS.n674 585
R609 VSS.n2162 VSS.n674 585
R610 VSS.n2166 VSS.n2001 585
R611 VSS.n2166 VSS.n710 585
R612 VSS.n2001 VSS.n1999 585
R613 VSS.n1999 VSS.n710 585
R614 VSS.n2001 VSS.n1998 585
R615 VSS.n1998 VSS.n710 585
R616 VSS.n2162 VSS.n2001 585
R617 VSS.n373 VSS.n362 585
R618 VSS.n2466 VSS.n373 585
R619 VSS.n5254 VSS.n5253 585
R620 VSS.n367 VSS.n365 585
R621 VSS.n5257 VSS.n5256 585
R622 VSS.n5258 VSS.n5257 585
R623 VSS.n5256 VSS.n361 585
R624 VSS.n5259 VSS.n361 585
R625 VSS.n5365 VSS.n5364 585
R626 VSS.n5364 VSS.n5363 585
R627 VSS.n2621 VSS.n154 585
R628 VSS.n2925 VSS.n154 585
R629 VSS.n5425 VSS.n154 585
R630 VSS.n5426 VSS.n149 585
R631 VSS.n5427 VSS.n5426 585
R632 VSS.n5426 VSS.n5425 585
R633 VSS.n5375 VSS.n198 585
R634 VSS.n3347 VSS.n198 585
R635 VSS.n3836 VSS.n1345 585
R636 VSS.n3836 VSS.n3256 585
R637 VSS.n3836 VSS.n3835 585
R638 VSS.n3834 VSS.n3263 585
R639 VSS.n3834 VSS.n3833 585
R640 VSS.n3835 VSS.n3834 585
R641 VSS.n4406 VSS.n900 585
R642 VSS.n4407 VSS.n4406 585
R643 VSS.n4406 VSS.n4405 585
R644 VSS.n4404 VSS.n958 585
R645 VSS.n4404 VSS.n4403 585
R646 VSS.n4405 VSS.n4404 585
R647 VSS.n3831 VSS.n1008 585
R648 VSS.n3281 VSS.n1008 585
R649 VSS.n3334 VSS.n1008 585
R650 VSS.n1008 VSS.n983 585
R651 VSS.n1008 VSS.n1004 585
R652 VSS.n3339 VSS.n1008 585
R653 VSS.n1008 VSS.n1007 585
R654 VSS.n4225 VSS.n1008 585
R655 VSS.n4203 VSS.n1008 585
R656 VSS.n1008 VSS.n970 585
R657 VSS.n1008 VSS.n1005 585
R658 VSS.n4201 VSS.n1008 585
R659 VSS.n4399 VSS.n1008 585
R660 VSS.n1271 VSS.n1002 585
R661 VSS.n4400 VSS.n1002 585
R662 VSS.n4401 VSS.n4400 585
R663 VSS.n4400 VSS.n1003 585
R664 VSS.n3340 VSS.n3334 585
R665 VSS.n3340 VSS.n983 585
R666 VSS.n4400 VSS.n983 585
R667 VSS.n3340 VSS.n1004 585
R668 VSS.n4400 VSS.n1004 585
R669 VSS.n3340 VSS.n3339 585
R670 VSS.n4203 VSS.n304 585
R671 VSS.n970 VSS.n304 585
R672 VSS.n4400 VSS.n970 585
R673 VSS.n1005 VSS.n304 585
R674 VSS.n4400 VSS.n1005 585
R675 VSS.n4201 VSS.n304 585
R676 VSS.n4398 VSS.n964 585
R677 VSS.n4400 VSS.n964 585
R678 VSS.n4399 VSS.n4398 585
R679 VSS.n4400 VSS.n4399 585
R680 VSS.n4065 VSS.n6 585
R681 VSS.n6 VSS.n4 585
R682 VSS.n4069 VSS.n4067 585
R683 VSS.n4071 VSS.n4069 585
R684 VSS.n4101 VSS.n4100 585
R685 VSS.n4100 VSS.n4099 585
R686 VSS.n4074 VSS.n4070 585
R687 VSS.n4098 VSS.n4070 585
R688 VSS.n4096 VSS.n4095 585
R689 VSS.n4097 VSS.n4096 585
R690 VSS.n4078 VSS.n4073 585
R691 VSS.n4073 VSS.n4072 585
R692 VSS.n4090 VSS.n4089 585
R693 VSS.n4089 VSS.n4088 585
R694 VSS.n4085 VSS.n4084 585
R695 VSS.n4087 VSS.n4085 585
R696 VSS.n4080 VSS.n1015 585
R697 VSS.n4086 VSS.n1015 585